examples/test_perturbation_outputs/pert_min_loss/pglib_opf_case5_pjm.m
%% MATPOWER Case Format : Version 2
function mpc = pglib_opf_case5_pjm
mpc.version = '2';

%%-----  Power Flow Data  -----%%
%% system MVA base
mpc.baseMVA = 100.0;
%% bus data
%    bus_i    type    Pd    Qd    Gs    Bs    area    Vm    Va    baseKV    zone    Vmax    Vmin
mpc.bus = [
	1	2	0.0	0.0	0.0	0.0	1	1.0	0.0	230.0	1	1.1	0.9				
	2	1	300.0	98.61	0.0	0.0	1	1.0	0.0	230.0	1	1.1	0.9				
	3	2	300.0	98.61	0.0	0.0	1	1.0	0.0	230.0	1	1.1	0.9				
	4	3	400.0	131.47	0.0	0.0	1	1.0	0.0	230.0	1	1.1	0.9				
	5	2	0.0	0.0	0.0	0.0	1	1.0	0.0	230.0	1	1.1	0.9				
];

%% generator data
%    bus    Pg    Qg    Qmax    Qmin    Vg    mBase    status    Pmax    Pmin    Pc1    Pc2    Qc1min    Qc1max    Qc2min    Qc2max    ramp_agc    ramp_10    ramp_30    ramp_q    apf
mpc.gen = [
	1	20.0	0.0	30.0	-30.0	1.0	100.0	1	40.0	0.0															
	1	85.0	0.0	127.49999999999999	-127.49999999999999	1.0	100.0	1	170.0	0.0															
	3	260.0	0.0	390.0	-390.0	1.0	100.0	1	520.0	0.0															
	4	100.0	0.0	150.0	-150.0	1.0	100.0	1	200.0	0.0															
	5	300.0	0.0	450.0	-450.0	1.0	100.0	1	600.0	0.0															
];

%% branch data
%    f_bus    t_bus    r    x    b    rateA    rateB    rateC    ratio    angle    status    angmin    angmax
mpc.branch = [
	1	2	0.00010342456526518825	0.02853919229218374	0.3712437772317679	400.0	400.0	400.0	0	0	1	-29.999999999999996	29.999999999999996								
	1	4	0.0006366600737016392	0.030470610185392953	0.047178995603962735	426.0	426.0	426.0	0	0	1	-29.999999999999996	29.999999999999996								
	1	5	0.0006394986237544011	0.006410263891750112	0.00014874591913713485	426.0	426.0	426.0	0	0	1	-29.999999999999996	29.999999999999996								
	2	3	0.001002167621931046	0.010741998427399852	0.3712437772317679	426.0	426.0	426.0	0	0	1	-29.999999999999996	29.999999999999996								
	3	4	0.0029506846404248155	0.029862599329086064	0.0001490559545499359	426.0	426.0	426.0	0	0	1	-29.999999999999996	29.999999999999996								
	4	5	0.00014707820046364723	0.029475367596556497	0.00014853946055469057	240.0	240.0	240.0	0	0	1	-29.999999999999996	29.999999999999996								
];

%%-----  OPF Data  -----%%
%% cost data
%    1    startup    shutdown    n    x1    y1    ...    xn    yn
%    2    startup    shutdown    n    c(n-1)    ...    c0
mpc.gencost = [
	2	0.0	0.0	2	14.0	0.0
	2	0.0	0.0	2	15.0	0.0
	2	0.0	0.0	2	30.0	0.0
	2	0.0	0.0	2	40.0	0.0
	2	0.0	0.0	2	10.0	0.0
];

